testData/tamu2000/pfcases_100_zone2326/Equ_tx2000_hr_5353_mod_v23_zone23_26_pslf.raw
0  100.000 
THIS IS A SYNTHETIC POWER SYSTEM MODEL THAT DOES NOT REPRESE
DATA RESEARCH PROJECT AND CONTAINS NO CEII.
1012,  1,  -6.333,  -3.658,  0.000,  0.000,  1,  1.02963,  -82.2213,  'SANDERSO',  115.00,  9
1033,  1,  7.810,  -20.710,  0.000,  0.000,  1,  1.02556,  -72.7548,  'MCCAMEY ',  230.00,  9
1046,  1,  -0.644,  1.342,  0.000,  0.000,  1,  1.02911,  -80.7708,  'OZONA 0 ',  115.00,  9
1048,  2,  100.495,  -3.725,  0.000,  0.000,  1,  1.00000,  -57.7764,  'MONAHANS',  18.000,  9
1049,  2,  69.303,  3.718,  0.000,  0.000,  1,  1.00000,  -52.1400,  'MONAHANS',  18.000,  9
1053,  2,  62.045,  -12.495,  0.000,  0.000,  1,  1.01542,  -68.0195,  'MONAHANS',  230.00,  9
1072,  3,  66.091,  -0.827,  0.000,  0.000,  1,  1.01000,  -64.7509,  'ODESSA 1',  18.000,  9
1073,  2,  38.259,  -3.005,  0.000,  0.000,  1,  1.01000,  -67.9840,  'ODESSA 1',  18.000,  9
1074,  2,  39.964,  -1.115,  0.000,  0.000,  1,  1.01000,  -68.2125,  'ODESSA 1',  18.000,  9
1075,  2,  48.891,  -1.465,  0.000,  0.000,  1,  1.01000,  -69.0171,  'ODESSA 1',  18.000,  9
1076,  2,  111.055,  -9.093,  0.000,  0.000,  1,  1.01000,  -70.6370,  'ODESSA 1',  18.000,  9
1077,  2,  41.150,  -1.506,  0.000,  0.000,  1,  1.01000,  -68.3375,  'ODESSA 1',  18.000,  9
1081,  2,  79.370,  -23.455,  0.000,  0.000,  1,  1.02116,  -70.0116,  'ODESSA 1',  230.00,  9
2004,  2,  92.733,  -22.461,  0.000,  0.000,  2,  1.02088,  -71.3424,  'SAVOY 2 ',  13.800,  11
2005,  2,  80.458,  -19.743,  0.000,  0.000,  2,  1.02000,  -71.1796,  'SAVOY 3 ',  13.800,  11
2006,  2,  55.119,  -12.472,  0.000,  0.000,  2,  1.02000,  -70.5616,  'SAVOY 4 ',  13.800,  11
2024,  2,  64.813,  -16.397,  0.000,  0.000,  2,  1.02485,  -70.8467,  'PARIS 2 ',  13.800,  11
2057,  3,  118.769,  -73.225,  0.000,  0.000,  2,  0.99000,  -71.2616,  'WICHITA ',  18.000,  11
2071,  2,  15.302,  -6.145,  0.000,  0.000,  2,  1.01061,  -70.3152,  'ARCHER 2',  18.000,  11
2078,  2,  54.269,  -14.482,  0.000,  0.000,  2,  1.02000,  -76.1154,  'MUENSTER',  13.800,  11
2100,  2,  15.457,  6.792,  0.000,  0.000,  2,  1.02118,  -72.3723,  'RALLS 1 ',  18.000,  10
2103,  2,  121.579,  -22.874,  0.000,  0.000,  2,  1.02459,  -72.4013,  'SHERMAN ',  20.000,  11
2104,  2,  92.992,  -17.326,  0.000,  0.000,  2,  1.02345,  -72.2305,  'SHERMAN ',  20.000,  11
2105,  2,  58.152,  -12.162,  0.000,  0.000,  2,  1.02081,  -71.8075,  'SHERMAN ',  20.000,  11
2115,  2,  52.106,  -11.837,  0.000,  0.000,  2,  1.02173,  -69.1027,  'PARIS 1 ',  13.800,  11
2116,  2,  82.716,  -19.378,  0.000,  0.000,  2,  1.02549,  -70.1869,  'PARIS 1 ',  13.800,  11
2117,  2,  48.155,  -10.257,  0.000,  0.000,  2,  1.01987,  -68.7472,  'PARIS 1 ',  13.800,  11
2118,  2,  48.644,  -9.705,  0.000,  0.000,  2,  1.01888,  -68.4623,  'PARIS 1 ',  13.800,  11
2119,  2,  66.404,  -15.931,  0.000,  0.000,  2,  1.02459,  -69.9319,  'PARIS 1 ',  13.800,  11
2120,  2,  48.455,  -10.031,  0.000,  0.000,  2,  1.01943,  -68.5756,  'PARIS 1 ',  13.800,  11
2127,  2,  120.670,  -111.225,  0.000,  0.000,  2,  1.04000,  -73.1374,  'MIAMI 0 ',  500.00,  10
3001,  1,  0.000,  0.000,  0.000,  0.000,  3,  1.02003,  -75.4127,  'KERRVILL',  230.00,  28
3002,  1,  0.000,  0.000,  0.000,  0.000,  3,  1.01353,  -77.9526,  'KERRVILL',  115.00,  28
3005,  1,  0.000,  0.000,  0.000,  0.000,  3,  0.98864,  -89.4047,  'LEAKEY 0',  115.00,  28
3008,  1,  27.172,  7.677,  0.000,  0.000,  3,  1.02486,  -81.4468,  'COLEMAN ',  115.00,  27
3009,  1,  0.000,  0.000,  0.000,  0.000,  3,  1.02995,  -82.8946,  'SONORA 0',  115.00,  28
3010,  1,  0.000,  0.000,  0.000,  0.000,  3,  1.00199,  -89.4616,  'CAMP WOO',  115.00,  28
3011,  1,  0.000,  0.000,  0.000,  0.000,  3,  1.01018,  -81.7957,  'LLANO 0 ',  115.00,  28
3012,  1,  0.000,  0.000,  0.000,  0.000,  3,  1.00213,  -82.4590,  'WILLOW C',  115.00,  28
3014,  1,  0.000,  0.000,  0.000,  0.000,  3,  1.02622,  -76.2792,  'KINGSLAN',  115.00,  28
3018,  1,  -32.050,  -5.935,  0.000,  0.000,  3,  1.03141,  -80.3106,  'CHRISTOV',  230.00,  27
3019,  1,  116.551,  5.692,  0.000,  0.000,  3,  1.02984,  -81.6066,  'CHRISTOV',  115.00,  27
3024,  1,  0.000,  0.000,  0.000,  0.000,  3,  1.02911,  -82.2076,  'ELDORADO',  115.00,  28
3025,  1,  0.000,  0.000,  0.000,  0.000,  3,  1.02324,  -80.0373,  'SAN SABA',  115.00,  28
3028,  2,  40.115,  0.593,  0.000,  0.000,  3,  1.04000,  -72.6111,  'ABILENE ',  18.000,  27
3029,  1,  0.000,  0.000,  0.000,  0.000,  3,  1.03419,  -76.6721,  'LOMETA 0',  115.00,  28
3035,  1,  0.000,  0.000,  0.000,  0.000,  3,  1.02264,  -81.4897,  'CHEROKEE',  115.00,  28
3036,  1,  0.000,  0.000,  0.000,  0.000,  3,  1.02393,  -81.6343,  'RICHLAND',  115.00,  28
3045,  2,  18.282,  0.717,  0.000,  0.000,  3,  1.04000,  -68.1424,  'SILVER 4',  13.800,  27
3048,  1,  145.468,  -327.180,  0.000,  0.000,  3,  1.05293,  -72.5738,  'ROSCOE 5',  500.00,  27
3050,  1,  -0.001,  -12.316,  0.000,  0.000,  3,  1.02985,  -83.2831,  'DEL RIO ',  230.00,  28
3051,  1,  0.000,  -20.773,  0.000,  0.000,  3,  1.01895,  -86.1062,  'DEL RIO ',  115.00,  28
3052,  1,  0.000,  0.000,  0.000,  0.000,  3,  1.00384,  -84.9749,  'HUNT 0  ',  115.00,  28
3066,  1,  0.000,  0.000,  0.000,  0.000,  3,  1.02145,  -83.3178,  'BRADY 0 ',  115.00,  28
3073,  1,  0.000,  0.000,  0.000,  0.000,  3,  0.99865,  -91.8910,  'BRACKETT',  115.00,  28
3074,  1,  -10.001,  -1.488,  0.000,  0.000,  3,  0.99965,  -91.5546,  'BRACKETT',  13.800,  28
3075,  1,  0.000,  0.000,  0.000,  0.000,  3,  1.02311,  -85.1489,  'MASON 0 ',  115.00,  28
3076,  1,  0.000,  0.000,  0.000,  0.000,  3,  0.99966,  -91.1107,  'BRACKETT',  115.00,  28
3093,  1,  0.000,  0.000,  0.000,  0.000,  3,  1.00297,  -87.8895,  'ROCKSPRI',  115.00,  28
3101,  1,  0.000,  0.000,  0.000,  0.000,  3,  1.02074,  -77.2064,  'BUCHANAN',  115.00,  28
3104,  1,  0.000,  0.000,  0.000,  0.000,  3,  1.01738,  -76.5356,  'BUCHANAN',  115.00,  28
3105,  1,  -0.807,  0.740,  0.000,  0.000,  3,  1.01653,  -76.4721,  'BUCHANAN',  13.200,  28
3106,  3,  0.000,  0.000,  0.000,  0.000,  3,  1.00000,  -76.7897,  'BUCHANAN',  13.200,  28
3107,  1,  0.000,  0.000,  0.000,  0.000,  3,  1.00635,  -81.1152,  'INGRAM 0',  115.00,  28
3108,  1,  0.000,  0.000,  0.000,  0.000,  3,  1.02069,  -77.2943,  'KEMPNER ',  115.00,  28
3119,  1,  0.000,  0.000,  0.000,  0.000,  3,  1.02096,  -91.2199,  'BRACKETT',  115.00,  28
3120,  2,  0.000,  0.000,  0.000,  0.000,  3,  1.02096,  -91.2199,  'BRACKETT',  13.800,  28
3123,  1,  0.000,  0.000,  0.000,  0.000,  3,  0.98865,  -92.9500,  'UVALDE 0',  115.00,  28
3124,  1,  -0.001,  -30.576,  0.000,  0.000,  3,  1.03000,  -79.6861,  'FREDERIC',  115.00,  28
3126,  1,  0.000,  -44.368,  0.000,  0.000,  3,  0.99293,  -92.2949,  'SABINAL ',  115.00,  28
3132,  1,  0.000,  0.000,  0.000,  0.000,  3,  1.02201,  -84.6550,  'EDEN 0  ',  115.00,  28
3138,  1,  0.000,  0.000,  0.000,  0.000,  3,  1.02780,  -84.9661,  'MENARD 0',  115.00,  28
3142,  1,  41.426,  -11.401,  0.000,  0.000,  3,  1.02982,  -84.7920,  'GOODFELL',  115.00,  27
3143,  1,  -0.001,  -11.580,  0.000,  0.000,  3,  1.02988,  -82.9620,  'SANTA AN',  115.00,  28
3144,  1,  0.000,  0.000,  0.000,  0.000,  3,  1.02517,  -83.9370,  'ROWENA 0',  115.00,  28
3146,  1,  0.000,  -2.905,  0.000,  0.000,  3,  1.02964,  -84.2428,  'JUNCTION',  115.00,  28
3147,  1,  -0.009,  -14.555,  0.000,  0.000,  3,  1.02998,  -77.4935,  'LAMPASAS',  115.00,  28
4002,  1,  0.000,  0.000,  0.000,  0.000,  4,  1.01341,  -91.5297,  'LAUGHLIN',  115.00,  20
4004,  1,  0.000,  0.000,  0.000,  0.000,  4,  1.02952,  -91.4893,  'LAREDO 7',  230.00,  20
4005,  1,  0.000,  -57.442,  0.000,  0.000,  4,  1.02998,  -93.7924,  'LAREDO 7',  115.00,  20
4006,  1,  0.000,  0.000,  0.000,  0.000,  4,  1.02816,  -90.8943,  'BRUNI 2 ',  115.00,  20
4008,  1,  0.000,  0.000,  0.000,  0.000,  4,  1.01473,  -75.4259,  'POTEET 0',  115.00,  20
4011,  1,  35.746,  -7.871,  0.000,  0.000,  4,  1.02044,  -95.3193,  'HEBBRONV',  115.00,  19
4014,  1,  0.000,  0.000,  0.000,  0.000,  4,  1.03010,  -88.9465,  'EAGLE PA',  230.00,  20
4015,  1,  0.000,  -32.845,  0.000,  0.000,  4,  1.02996,  -90.1086,  'EAGLE PA',  115.00,  20
4016,  1,  0.000,  0.000,  0.000,  0.000,  4,  1.02167,  -75.3602,  'CHARLOTT',  115.00,  20
4022,  1,  0.000,  0.000,  0.000,  0.000,  4,  1.01911,  -91.8411,  'ENCINAL ',  115.00,  20
4023,  1,  0.000,  0.000,  0.000,  0.000,  4,  1.02003,  -75.1520,  'MOORE 0 ',  115.00,  20
4024,  1,  0.000,  0.000,  0.000,  0.000,  4,  1.02671,  -74.0635,  'CHRISTIN',  230.00,  20
4025,  1,  0.000,  0.000,  0.000,  0.000,  4,  1.02507,  -75.0183,  'CHRISTIN',  115.00,  20
4026,  2,  0.000,  0.000,  0.000,  0.000,  4,  1.03000,  -71.8484,  'CHRISTIN',  13.800,  20
4029,  1,  10.888,  5.503,  0.000,  0.000,  4,  1.01199,  -66.9084,  'FANNIN 1',  115.00,  21
4030,  3,  -4.120,  0.316,  0.000,  0.000,  4,  1.01000,  -64.1250,  'FANNIN 2',  13.800,  21
4031,  1,  0.000,  0.000,  0.000,  0.000,  4,  1.02152,  -95.5152,  'SAN YGNA',  115.00,  20
4033,  1,  0.000,  0.000,  0.000,  0.000,  4,  1.01532,  -93.9499,  'LAREDO 6',  115.00,  20
4036,  1,  0.000,  0.000,  0.000,  0.000,  4,  1.00938,  -84.8910,  'CRYSTAL ',  115.00,  20
4043,  1,  69.619,  -7.457,  0.000,  0.000,  4,  1.01135,  -100.9301,  'FALCON H',  115.00,  19
4058,  2,  20.556,  2.161,  0.000,  0.000,  4,  1.03000,  -79.2885,  'GREGORY ',  13.800,  21
4059,  2,  24.120,  2.081,  0.000,  0.000,  4,  1.03000,  -79.5033,  'GREGORY ',  13.800,  21
4060,  2,  20.787,  2.463,  0.000,  0.000,  4,  1.03000,  -78.6827,  'GREGORY ',  13.800,  21
4061,  2,  22.280,  2.664,  0.000,  0.000,  4,  1.03000,  -77.5394,  'GREGORY ',  13.800,  21
4062,  2,  26.193,  3.178,  0.000,  0.000,  4,  1.03000,  -76.7619,  'GREGORY ',  13.800,  21
4063,  2,  21.924,  2.913,  0.000,  0.000,  4,  1.03000,  -77.4833,  'GREGORY ',  13.800,  21
4073,  1,  1560.054,  -311.668,  0.000,  0.000,  4,  1.02256,  -102.3403,  'MISSION ',  230.00,  19
4082,  2,  18.457,  -1.191,  0.000,  0.000,  4,  1.04000,  -83.7594,  'CORPUS C',  13.800,  21
4083,  2,  19.640,  -1.363,  0.000,  0.000,  4,  1.04000,  -84.0598,  'CORPUS C',  13.800,  21
4084,  2,  32.973,  -4.040,  0.000,  0.000,  4,  1.04000,  -85.6533,  'CORPUS C',  13.800,  21
4085,  2,  44.988,  -5.244,  0.000,  0.000,  4,  1.04000,  -84.6250,  'CORPUS C',  13.800,  21
4101,  1,  0.000,  0.000,  0.000,  0.000,  4,  1.01290,  -94.0091,  'LAREDO 3',  115.00,  20
4105,  2,  85.081,  1.509,  0.000,  0.000,  4,  1.01000,  -84.2093,  'TAFT 2 1',  18.000,  21
4113,  1,  0.000,  0.000,  0.000,  0.000,  4,  1.02846,  -91.6570,  'LAREDO 1',  230.00,  20
4114,  1,  0.000,  0.000,  0.000,  0.000,  4,  1.02222,  -93.0970,  'LAREDO 1',  115.00,  20
4115,  2,  0.000,  0.000,  0.000,  0.000,  4,  1.04000,  -90.5239,  'LAREDO 1',  13.800,  20
4116,  2,  0.000,  0.000,  0.000,  0.000,  4,  1.04000,  -90.4703,  'LAREDO 1',  13.800,  20
4117,  1,  0.000,  0.000,  0.000,  0.000,  4,  1.02344,  -75.4388,  'JOURDANT',  115.00,  20
4118,  1,  49.430,  -6.891,  0.000,  0.000,  4,  1.00954,  -91.9558,  'GEORGE W',  115.00,  21
4125,  1,  44.124,  4.560,  0.000,  0.000,  4,  1.00515,  -75.9978,  'PETTUS 0',  115.00,  21
4129,  1,  0.000,  0.000,  0.000,  0.000,  4,  1.03182,  -94.9154,  'PREMONT ',  115.00,  20
4130,  1,  0.000,  -7.818,  0.000,  0.000,  4,  1.02999,  -95.0663,  'FREER 0 ',  115.00,  20
4131,  1,  -0.001,  -113.184,  0.000,  0.000,  4,  1.02999,  -80.0877,  'PEARSALL',  230.00,  20
4132,  1,  0.000,  0.000,  0.000,  0.000,  4,  1.02579,  -81.2670,  'PEARSALL',  115.00,  20
4133,  2,  0.000,  0.000,  0.000,  0.000,  4,  1.02999,  -80.0877,  'PEARSALL',  20.000,  20
4134,  2,  0.000,  0.000,  0.000,  0.000,  4,  1.02999,  -80.0877,  'PEARSALL',  20.000,  20
4135,  2,  0.000,  0.000,  0.000,  0.000,  4,  1.02999,  -80.0877,  'PEARSALL',  20.000,  20
4136,  2,  0.000,  0.000,  0.000,  0.000,  4,  1.02999,  -80.0877,  'PEARSALL',  20.000,  20
4137,  2,  0.000,  0.000,  0.000,  0.000,  4,  1.02999,  -80.0877,  'PEARSALL',  20.000,  20
4138,  2,  0.000,  0.000,  0.000,  0.000,  4,  1.02999,  -80.0877,  'PEARSALL',  20.000,  20
4140,  1,  183.983,  -100.956,  0.000,  0.000,  4,  1.03266,  -91.7200,  'SARITA 1',  230.00,  21
4143,  1,  0.000,  0.000,  0.000,  0.000,  4,  1.01427,  -83.7664,  'DILLEY 0',  115.00,  20
4146,  1,  0.000,  0.000,  0.000,  0.000,  4,  1.02575,  -90.9245,  'LAREDO 4',  230.00,  20
4147,  1,  0.000,  -105.919,  0.000,  0.000,  4,  1.02916,  -92.7433,  'LAREDO 4',  115.00,  20
4148,  1,  0.000,  0.000,  0.000,  0.000,  4,  1.01320,  -93.7048,  'THREE RI',  115.00,  20
4160,  2,  70.278,  6.945,  0.000,  0.000,  4,  1.03000,  -81.3311,  'CORPUS C',  13.800,  21
4161,  2,  36.035,  4.121,  0.000,  0.000,  4,  1.03000,  -79.1397,  'CORPUS C',  13.800,  21
4162,  2,  36.425,  3.388,  0.000,  0.000,  4,  1.03000,  -79.1842,  'CORPUS C',  13.800,  21
4172,  1,  0.000,  0.000,  0.000,  0.000,  4,  1.02006,  -76.5383,  'PLEASANT',  115.00,  20
4174,  1,  -0.002,  -41.403,  0.000,  0.000,  4,  1.03000,  -74.3633,  'LYTLE 0 ',  115.00,  20
4175,  1,  0.000,  -14.769,  0.000,  0.000,  4,  1.02999,  -94.1804,  'LAREDO 2',  115.00,  20
4176,  1,  0.000,  0.000,  0.000,  0.000,  4,  1.03640,  -94.0671,  'BRUNI 1 ',  115.00,  20
4177,  1,  -15.031,  -5.946,  0.000,  0.000,  4,  1.03997,  -93.6251,  'BRUNI 1 ',  13.800,  20
4178,  1,  60.177,  -47.504,  0.000,  0.000,  4,  1.02972,  -77.7894,  'GOLIAD 0',  115.00,  21
4179,  1,  0.000,  0.000,  0.000,  0.000,  4,  1.02408,  -94.9063,  'SAN DIEG',  115.00,  20
4181,  2,  144.423,  -8.385,  0.000,  0.000,  4,  1.02128,  -80.2371,  'TAFT 1 0',  230.00,  21
4187,  1,  0.000,  0.000,  0.000,  0.000,  4,  1.01026,  -89.8111,  'COTULLA ',  115.00,  20
4188,  1,  0.000,  0.000,  0.000,  0.000,  4,  1.02656,  -90.8373,  'QUEMADO ',  115.00,  20
4189,  1,  0.000,  0.000,  0.000,  0.000,  4,  1.00539,  -86.6184,  'CARRIZO ',  115.00,  20
4190,  1,  0.000,  0.000,  0.000,  0.000,  4,  1.01785,  -93.6617,  'LAREDO 5',  115.00,  20
4192,  2,  711.925,  32.515,  0.000,  0.000,  4,  1.02000,  -95.2334,  'BROWNSVI',  230.00,  19
4195,  1,  -9.219,  13.250,  0.000,  0.000,  4,  1.02492,  -83.4083,  'OILTON 0',  500.00,  20
4196,  1,  0.000,  -94.230,  0.000,  0.000,  4,  1.02999,  -86.3167,  'OILTON 1',  230.00,  20
4197,  1,  0.000,  -4.049,  0.000,  0.000,  4,  1.02999,  -89.2346,  'OILTON 2',  115.00,  20
5005,  1,  0.000,  0.000,  0.000,  0.000,  5,  1.00643,  -79.9647,  'LIPAN 0 ',  161.00,  18
5011,  1,  0.000,  0.000,  0.000,  0.000,  5,  0.96809,  -79.8581,  'THORNTON',  161.00,  13
5020,  2,  27.665,  -13.715,  0.000,  0.000,  5,  1.03197,  -71.8170,  'JACKSBOR',  13.800,  12
5021,  1,  1113.968,  -60.512,  0.000,  0.000,  5,  1.03131,  -74.1983,  'ALEDO 1 ',  500.00,  17
5024,  1,  0.845,  0.000,  0.000,  0.000,  5,  0.95616,  -82.6765,  'GATESVIL',  161.00,  13
5025,  1,  0.000,  0.000,  0.000,  0.000,  5,  1.02622,  -74.9434,  'CLEBURNE',  161.00,  18
5029,  1,  0.000,  0.000,  0.000,  0.000,  5,  0.99880,  -77.0672,  'TROY 0  ',  161.00,  13
5037,  2,  166.724,  2.325,  0.000,  0.000,  5,  1.02360,  -71.9070,  'DALLAS 1',  13.200,  16
5038,  2,  161.841,  2.641,  0.000,  0.000,  5,  1.02339,  -71.8506,  'DALLAS 1',  13.200,  16
5039,  2,  374.370,  -0.252,  0.000,  0.000,  5,  1.02603,  -72.8698,  'DALLAS 1',  13.200,  16
5040,  2,  126.468,  1.197,  0.000,  0.000,  5,  1.02218,  -71.2834,  'DALLAS 1',  13.200,  16
5041,  2,  177.303,  1.104,  0.000,  0.000,  5,  1.02407,  -72.0136,  'DALLAS 1',  13.200,  16
5042,  2,  149.565,  2.124,  0.000,  0.000,  5,  1.02312,  -71.9878,  'DALLAS 1',  13.200,  16
5045,  1,  0.000,  0.000,  0.000,  0.000,  5,  1.04321,  -72.1584,  'STEPHENV',  500.00,  18
5046,  1,  0.000,  0.000,  0.000,  0.000,  5,  1.03766,  -73.8128,  'STEPHENV',  161.00,  18
5047,  1,  490.955,  -68.385,  0.000,  0.000,  5,  1.02737,  -72.7317,  'MANSFIEL',  500.00,  17
5054,  1,  113.202,  26.423,  0.000,  0.000,  5,  0.95043,  -82.2945,  'GROESBEC',  161.00,  14
5057,  2,  73.805,  -24.514,  0.000,  0.000,  5,  1.03094,  -70.2450,  'GRAHAM 2',  13.800,  12
5058,  2,  52.994,  -16.683,  0.000,  0.000,  5,  1.02857,  -69.4965,  'GRAHAM 3',  13.800,  12
5063,  1,  2237.294,  -244.777,  0.000,  0.000,  5,  1.03209,  -73.8531,  'ARLINGTO',  500.00,  17
5067,  2,  0.000,  0.000,  0.000,  0.000,  5,  1.03000,  -72.0217,  'ARLINGTO',  13.800,  17
5068,  2,  0.000,  0.000,  0.000,  0.000,  5,  1.03000,  -71.9292,  'ARLINGTO',  13.800,  17
5069,  2,  0.000,  0.000,  0.000,  0.000,  5,  1.03000,  -71.8064,  'ARLINGTO',  13.800,  17
5071,  1,  0.000,  0.000,  0.000,  0.000,  5,  1.01704,  -75.3045,  'WACO 3 0',  161.00,  13
5075,  1,  0.000,  0.000,  0.000,  0.000,  5,  0.98897,  -79.6717,  'EVANT 0 ',  161.00,  18
5079,  1,  0.000,  0.000,  0.000,  0.000,  5,  1.02105,  -76.5659,  'WACO 4 0',  161.00,  13
5080,  1,  0.000,  0.000,  0.000,  0.000,  5,  0.98946,  -79.3476,  'LORENA 0',  161.00,  13
5081,  1,  0.000,  0.000,  0.000,  0.000,  5,  1.01984,  -75.6077,  'FORT HOO',  161.00,  13
5088,  1,  0.000,  0.000,  0.000,  0.000,  5,  0.99948,  -78.7878,  'CLIFTON ',  161.00,  18
5089,  1,  -2.247,  -10.519,  0.000,  0.000,  5,  1.00938,  -78.6904,  'CLIFTON ',  13.800,  18
5101,  1,  58.731,  -16.156,  0.000,  0.000,  5,  1.01858,  -81.0044,  'COMANCHE',  161.00,  15
5112,  1,  0.000,  0.000,  0.000,  0.000,  5,  1.00365,  -79.0155,  'HICO 0  ',  161.00,  18
5120,  1,  93.273,  -27.120,  0.000,  0.000,  5,  1.05073,  -72.8316,  'BROWNWOO',  500.00,  15
5123,  1,  0.000,  0.000,  0.000,  0.000,  5,  0.96114,  -79.8422,  'MARLIN 0',  161.00,  13
5124,  1,  0.000,  0.000,  0.000,  0.000,  5,  0.96105,  -79.1115,  'MARLIN 1',  115.00,  13
5127,  1,  0.000,  0.000,  0.000,  0.000,  5,  0.98996,  -81.0868,  'JONESBOR',  161.00,  18
5129,  1,  0.000,  0.000,  0.000,  0.000,  5,  1.02650,  -78.4263,  'GOLDTHWA',  161.00,  18
5131,  1,  0.000,  0.000,  0.000,  0.000,  5,  1.03028,  -72.5432,  'BELTON 0',  500.00,  13
5132,  1,  0.000,  0.000,  0.000,  0.000,  5,  1.02573,  -73.9327,  'BELTON 1',  161.00,  13
5133,  1,  0.000,  0.000,  0.000,  0.000,  5,  1.00089,  -80.1873,  'TOLAR 0 ',  161.00,  18
5137,  1,  0.000,  0.000,  0.000,  0.000,  5,  1.02384,  -74.3183,  'WACO 1 0',  500.00,  13
5138,  1,  0.000,  0.000,  0.000,  0.000,  5,  1.02215,  -75.5729,  'WACO 1 1',  161.00,  13
5140,  1,  0.000,  0.000,  0.000,  0.000,  5,  0.95476,  -82.9497,  'GATESVIL',  161.00,  13
5142,  1,  0.000,  0.000,  0.000,  0.000,  5,  0.98678,  -79.0819,  'MOODY 0 ',  161.00,  13
5144,  1,  0.000,  0.000,  0.000,  0.000,  5,  0.99981,  -77.4981,  'WACO 6 0',  161.00,  13
5151,  1,  0.000,  0.000,  0.000,  0.000,  5,  0.99996,  -79.9999,  'MORGAN 0',  161.00,  18
5154,  1,  0.000,  0.000,  0.000,  0.000,  5,  0.99531,  -79.6808,  'RIO VIST',  161.00,  18
5159,  1,  0.000,  0.000,  0.000,  0.000,  5,  0.95983,  -80.1954,  'ROSEBUD ',  161.00,  13
5162,  1,  166.820,  37.756,  0.000,  0.000,  5,  0.93291,  -84.4979,  'AXTELL 0',  161.00,  14
...
 0 /End of Bus data, Begin Generator data
1048,  '1',  188.620,  -9.630,  165.530,  -36.100,  1.00000,  0,  390.240,  0.00000,  0.10170,  0.00000,  0.00000,  1.00000,  1,  100.0,  325.200,  97.560
1049,  '1',  188.620,  10.039,  165.530,  -36.100,  1.00000,  0,  390.240,  0.00000,  0.13490,  0.00000,  0.00000,  1.00000,  1,  100.0,  325.200,  97.560
1053,  '1',  53.640,  -19.850,  91.010,  -19.850,  1.00000,  0,  214.560,  0.00000,  0.16870,  0.00000,  0.00000,  1.00000,  1,  100.0,  178.800,  53.640
1072,  '1',  156.217,  -10.547,  97.800,  -21.330,  1.01000,  0,  230.560,  0.00000,  0.30820,  0.00000,  0.00000,  1.00000,  1,  100.0,  192.130,  57.640
1073,  '1',  57.640,  -10.913,  97.800,  -21.330,  1.01000,  0,  230.560,  0.00000,  0.19480,  0.00000,  0.00000,  1.00000,  1,  100.0,  192.130,  57.640
1074,  '1',  57.640,  -8.275,  97.800,  -21.330,  1.01000,  0,  230.560,  0.00000,  0.20960,  0.00000,  0.00000,  1.00000,  1,  100.0,  192.130,  57.640
1075,  '1',  57.640,  -10.087,  97.800,  -21.330,  1.01000,  0,  230.560,  0.00000,  0.12370,  0.00000,  0.00000,  1.00000,  1,  100.0,  192.130,  57.640
1076,  '1',  57.640,  -20.136,  97.800,  -21.330,  1.01000,  0,  230.560,  0.00000,  0.10660,  0.00000,  0.00000,  1.00000,  1,  100.0,  192.130,  57.640
1077,  '1',  57.640,  -8.998,  97.800,  -21.330,  1.01000,  0,  230.560,  0.00000,  0.15380,  0.00000,  0.00000,  1.00000,  1,  100.0,  192.130,  57.640
1081,  '1',  166.170,  -31.800,  145.830,  -31.800,  1.01000,  0,  343.800,  0.00000,  0.14960,  0.00000,  0.00000,  1.00000,  1,  100.0,  286.500,  85.950
2004,  '1',  117.540,  -43.490,  199.430,  -43.490,  1.02000,  0,  470.160,  0.00000,  0.10640,  0.00000,  0.00000,  1.00000,  1,  100.0,  391.800,  117.540
2005,  '1',  117.540,  -42.838,  199.430,  -43.490,  1.02000,  0,  470.160,  0.00000,  0.22750,  0.00000,  0.00000,  1.00000,  1,  100.0,  391.800,  117.540
2006,  '1',  117.540,  -26.495,  199.430,  -43.490,  1.02000,  0,  470.160,  0.00000,  0.20040,  0.00000,  0.00000,  1.00000,  1,  100.0,  391.800,  117.540
2024,  '1',  50.000,  -18.500,  84.830,  -18.500,  1.02000,  0,  200.000,  0.00000,  0.15080,  0.00000,  0.00000,  1.00000,  1,  100.0,  166.670,  50.000
2057,  '1',  176.635,  -278.870,  335.520,  -87.840,  0.99000,  0,  864.000,  0.00000,  0.17700,  0.00000,  0.00000,  1.00000,  1,  100.0,  720.000,  216.000
2071,  '1',  40.091,  -21.600,  31.950,  -21.600,  1.00000,  0,  180.000,  0.00000,  1.00000,  0.00000,  0.00000,  1.00000,  1,  100.0,  150.000,  45.000
2078,  '1',  30.070,  -12.900,  23.960,  -16.200,  1.02000,  0,  135.000,  0.00000,  1.00000,  0.00000,  0.00000,  1.00000,  1,  100.0,  112.500,  33.750
2100,  '1',  30.698,  -21.600,  31.950,  -21.600,  1.02000,  0,  180.000,  0.00000,  1.00000,  0.00000,  0.00000,  1.00000,  1,  100.0,  150.000,  45.000
2103,  '1',  80.320,  -29.720,  136.280,  -29.720,  1.00000,  0,  321.280,  0.00000,  0.33430,  0.00000,  0.00000,  1.00000,  1,  100.0,  267.730,  80.320
2104,  '1',  80.320,  -29.720,  136.280,  -29.720,  1.00000,  0,  321.280,  0.00000,  0.31470,  0.00000,  0.00000,  1.00000,  1,  100.0,  267.730,  80.320
2105,  '1',  80.320,  -29.720,  136.280,  -29.720,  1.00000,  0,  321.280,  0.00000,  0.14160,  0.00000,  0.00000,  1.00000,  1,  100.0,  267.730,  80.320
2115,  '1',  107.130,  -20.500,  94.020,  -20.500,  1.00000,  0,  221.660,  0.00000,  0.14250,  0.00000,  0.00000,  1.00000,  1,  100.0,  184.720,  55.410
2116,  '1',  107.130,  -20.500,  94.020,  -20.500,  1.00000,  0,  221.660,  0.00000,  0.18690,  0.00000,  0.00000,  1.00000,  1,  100.0,  184.720,  55.410
2117,  '1',  107.130,  -20.500,  94.020,  -20.500,  1.00000,  0,  221.660,  0.00000,  0.32540,  0.00000,  0.00000,  1.00000,  1,  100.0,  184.720,  55.410
2118,  '1',  107.130,  -20.500,  94.020,  -20.500,  1.00000,  0,  221.660,  0.00000,  0.10610,  0.00000,  0.00000,  1.00000,  1,  100.0,  184.720,  55.410
2119,  '1',  107.130,  -20.500,  94.020,  -20.500,  1.00000,  0,  221.660,  0.00000,  0.13600,  0.00000,  0.00000,  1.00000,  1,  100.0,  184.720,  55.410
2120,  '1',  107.130,  -20.500,  94.020,  -20.500,  1.01000,  0,  221.660,  0.00000,  0.20680,  0.00000,  0.00000,  1.00000,  1,  100.0,  184.720,  55.410
2127,  '1',  89.761,  -22.059,  61.470,  -41.560,  1.04000,  0,  346.320,  0.00000,  1.00000,  0.00000,  0.00000,  1.00000,  1,  100.0,  288.600,  86.580
3028,  '1',  53.455,  -5.418,  42.600,  -28.800,  1.04000,  0,  240.000,  0.00000,  1.00000,  0.00000,  0.00000,  1.00000,  1,  100.0,  200.000,  60.000
3045,  '1',  134.100,  -3.812,  227.520,  -49.620,  1.04000,  0,  536.400,  0.00000,  0.14470,  0.00000,  0.00000,  1.00000,  1,  100.0,  447.000,  134.100
3106,  '1',  -4.759,  -12.883,  62.477,  -2.690,  1.00000,  0,  65.880,  0.00000,  0.29220,  0.00000,  0.00000,  1.00000,  1,  100.0,  162.800,  0.000
3120,  '1',  0.000,  0.000,  0.000,  0.000,  1.00000,  0,  47.520,  0.00000,  1.00000,  0.00000,  0.00000,  1.00000,  0,  100.0,  39.600,  11.880
4026,  '1',  123.000,  9.822,  191.060,  -50.020,  1.03000,  0,  492.000,  0.00000,  0.32770,  0.00000,  0.00000,  1.00000,  1,  100.0,  410.000,  123.000
4030,  '1',  140.875,  -9.573,  290.040,  -75.930,  1.01000,  0,  746.880,  0.00000,  0.27970,  0.00000,  0.00000,  1.00000,  1,  100.0,  622.400,  186.720
4058,  '1',  43.200,  9.193,  73.300,  -15.980,  1.03000,  0,  172.800,  0.00000,  0.13700,  0.00000,  0.00000,  1.00000,  1,  100.0,  144.000,  43.200
4059,  '1',  43.200,  10.156,  73.300,  -15.980,  1.03000,  0,  172.800,  0.00000,  0.15140,  0.00000,  0.00000,  1.00000,  1,  100.0,  144.000,  43.200
4060,  '1',  43.200,  6.360,  73.300,  -15.980,  1.03000,  0,  172.800,  0.00000,  0.13940,  0.00000,  0.00000,  1.00000,  1,  100.0,  144.000,  43.200
4061,  '1',  99.950,  9.971,  87.720,  -19.130,  1.03000,  0,  206.800,  0.00000,  0.21560,  0.00000,  0.00000,  1.00000,  1,  100.0,  172.330,  51.700
4062,  '1',  99.950,  7.259,  87.720,  -19.130,  1.03000,  0,  206.800,  0.00000,  0.25930,  0.00000,  0.00000,  1.00000,  1,  100.0,  172.330,  51.700
4063,  '1',  99.950,  11.117,  87.720,  -19.130,  1.03000,  0,  206.800,  0.00000,  0.14410,  0.00000,  0.00000,  1.00000,  1,  100.0,  172.330,  51.700
4082,  '1',  141.170,  18.877,  123.890,  -27.020,  1.04000,  0,  292.080,  0.00000,  0.13810,  0.00000,  0.00000,  1.00000,  1,  100.0,  243.400,  73.020
4083,  '1',  141.170,  20.024,  123.890,  -27.020,  1.04000,  0,  292.080,  0.00000,  0.15700,  0.00000,  0.00000,  1.00000,  1,  100.0,  243.400,  73.020
4084,  '1',  141.170,  35.186,  123.890,  -27.020,  1.04000,  0,  292.080,  0.00000,  0.19110,  0.00000,  0.00000,  1.00000,  1,  100.0,  243.400,  73.020
4085,  '1',  253.440,  41.016,  179.170,  -39.070,  1.04000,  0,  422.400,  0.00000,  0.31920,  0.00000,  0.00000,  1.00000,  1,  100.0,  352.000,  105.600
4105,  '1',  48.110,  -9.490,  38.340,  -25.920,  1.01000,  0,  216.000,  0.00000,  1.00000,  0.00000,  0.00000,  1.00000,  1,  100.0,  180.000,  54.000
4115,  '1',  39.540,  21.849,  67.090,  -14.630,  1.04000,  0,  158.160,  0.00000,  0.11310,  0.00000,  0.00000,  1.00000,  1,  100.0,  131.800,  39.540
4116,  '1',  39.540,  20.381,  67.090,  -14.630,  1.04000,  0,  158.160,  0.00000,  0.15150,  0.00000,  0.00000,  1.00000,  1,  100.0,  131.800,  39.540
4133,  '1',  0.000,  0.000,  17.100,  -3.730,  1.00000,  0,  40.320,  0.00000,  0.22730,  0.00000,  0.00000,  1.00000,  0,  100.0,  33.600,  10.080
4134,  '1',  0.000,  -3.730,  17.100,  -3.730,  1.00000,  0,  40.320,  0.00000,  0.18000,  0.00000,  0.00000,  1.00000,  0,  100.0,  33.600,  10.080
4135,  '1',  0.000,  -3.730,  17.100,  -3.730,  1.00000,  0,  40.320,  0.00000,  0.10840,  0.00000,  0.00000,  1.00000,  0,  100.0,  33.600,  10.080
4136,  '1',  0.000,  -3.730,  17.100,  -3.730,  1.00000,  0,  40.320,  0.00000,  0.18960,  0.00000,  0.00000,  1.00000,  0,  100.0,  33.600,  10.080
4137,  '1',  0.000,  0.000,  34.200,  -7.460,  1.00000,  0,  80.640,  0.00000,  0.27350,  0.00000,  0.00000,  1.00000,  0,  100.0,  67.200,  20.160
4138,  '1',  0.000,  0.000,  33.590,  -7.330,  1.00000,  0,  79.200,  0.00000,  0.16760,  0.00000,  0.00000,  1.00000,  0,  100.0,  66.000,  19.800
4160,  '1',  114.710,  27.481,  100.660,  -21.950,  1.03000,  0,  237.320,  0.00000,  0.18820,  0.00000,  0.00000,  1.00000,  1,  100.0,  197.770,  59.330
4161,  '1',  114.710,  13.637,  100.660,  -21.950,  1.03000,  0,  237.320,  0.00000,  0.12390,  0.00000,  0.00000,  1.00000,  1,  100.0,  197.770,  59.330
4162,  '1',  114.710,  11.344,  100.660,  -21.950,  1.03000,  0,  237.320,  0.00000,  0.17220,  0.00000,  0.00000,  1.00000,  1,  100.0,  197.770,  59.330
4181,  '1',  53.480,  42.620,  42.620,  -28.810,  1.04000,  0,  240.120,  0.00000,  1.00000,  0.00000,  0.00000,  1.00000,  1,  100.0,  200.100,  60.030
4192,  '1',  784.350,  30.603,  688.320,  -150.120,  1.02000,  0,  1622.76,  0.00000,  0.14340,  0.00000,  0.00000,  1.00000,  1,  100.0,  1352.31,  405.690
5020,  '1',  32.073,  -17.280,  25.560,  -17.280,  1.00000,  0,  144.000,  0.00000,  1.00000,  0.00000,  0.00000,  1.00000,  1,  100.0,  120.000,  36.000
5037,  '1',  265.280,  -34.240,  157.010,  -34.240,  1.02000,  0,  370.160,  0.00000,  0.29910,  0.00000,  0.00000,  1.00000,  1,  100.0,  308.470,  92.540
5038,  '1',  265.280,  -34.240,  157.010,  -34.240,  1.02000,  0,  370.160,  0.00000,  0.12330,  0.00000,  0.00000,  1.00000,  1,  100.0,  308.470,  92.540
5039,  '1',  265.280,  -34.240,  157.010,  -34.240,  1.02000,  0,  370.160,  0.00000,  0.21470,  0.00000,  0.00000,  1.00000,  1,  100.0,  308.470,  92.540
5040,  '1',  265.280,  -34.240,  157.010,  -34.240,  1.02000,  0,  370.160,  0.00000,  0.19240,  0.00000,  0.00000,  1.00000,  1,  100.0,  308.470,  92.540
5041,  '1',  265.280,  -34.240,  157.010,  -34.240,  1.02000,  0,  370.160,  0.00000,  0.11590,  0.00000,  0.00000,  1.00000,  1,  100.0,  308.470,  92.540
5042,  '1',  228.763,  -34.240,  157.010,  -34.240,  1.02000,  0,  370.160,  0.00000,  0.19130,  0.00000,  0.00000,  1.00000,  1,  100.0,  308.470,  92.540
5057,  '1',  228.450,  -35.230,  161.530,  -35.230,  1.00000,  0,  380.820,  0.00000,  0.19130,  0.00000,  0.00000,  1.00000,  1,  100.0,  317.350,  95.200
5058,  '1',  228.490,  -35.230,  161.530,  -35.230,  1.00000,  0,  380.820,  0.00000,  0.29820,  0.00000,  0.00000,  1.00000,  1,  100.0,  317.350,  95.200
5067,  '1',  315.550,  -18.209,  223.080,  -48.650,  1.03000,  0,  525.920,  0.00000,  0.32610,  0.00000,  0.00000,  1.00000,  1,  100.0,  438.270,  131.480
5068,  '1',  315.550,  -18.517,  223.080,  -48.650,  1.03000,  0,  525.920,  0.00000,  0.11690,  0.00000,  0.00000,  1.00000,  1,  100.0,  438.270,  131.480
5069,  '1',  315.550,  -17.801,  223.080,  -48.650,  1.03000,  0,  525.920,  0.00000,  0.10560,  0.00000,  0.00000,  1.00000,  1,  100.0,  438.270,  131.480
5166,  '1',  37.950,  15.333,  64.390,  -14.040,  1.04000,  0,  151.800,  0.00000,  0.13910,  0.00000,  0.00000,  1.00000,  1,  100.0,  126.500,  37.950
5198,  '1',  40.091,  -21.600,  31.950,  -21.600,  1.00000,  0,  180.000,  0.00000,  1.00000,  0.00000,  0.00000,  1.00000,  1,  100.0,  150.000,  45.000
5206,  '1',  179.040,  -27.600,  126.570,  -27.600,  1.01000,  0,  298.400,  0.00000,  0.11980,  0.00000,  0.00000,  1.00000,  1,  100.0,  248.670,  74.600
5207,  '1',  179.040,  -27.600,  126.570,  -27.600,  1.01000,  0,  298.400,  0.00000,  0.18090,  0.00000,  0.00000,  1.00000,  1,  100.0,  248.670,  74.600
5208,  '1',  179.040,  -27.600,  126.570,  -27.600,  1.01000,  0,  298.400,  0.00000,  0.10560,  0.00000,  0.00000,  1.00000,  1,  100.0,  248.670,  74.600
5238,  '1',  60.137,  -32.400,  47.930,  -32.400,  1.00000,  0,  270.000,  0.00000,  1.00000,  0.00000,  0.00000,  1.00000,  1,  100.0,  225.000,  67.500
5243,  '1',  40.091,  -21.600,  31.950,  -21.600,  1.00000,  0,  180.000,  0.00000,  1.00000,  0.00000,  0.00000,  1.00000,  1,  100.0,  150.000,  45.000
5262,  '1',  1215.000,  -99.630,  447.120,  -99.630,  1.01000,  0,  1458.00,  0.00000,  0.26310,  0.00000,  0.00000,  1.00000,  1,  100.0,  1215.00,  364.500
5263,  '1',  1215.000,  -99.630,  447.120,  -99.630,  1.01000,  0,  1458.00,  0.00000,  0.16260,  0.00000,  0.00000,  1.00000,  1,  100.0,  1215.00,  364.500
5281,  '1',  80.320,  -29.720,  136.280,  -29.720,  1.00000,  0,  321.280,  0.00000,  0.10660,  0.00000,  0.00000,  1.00000,  1,  100.0,  267.730,  80.320
5282,  '1',  80.320,  -29.720,  136.280,  -29.720,  1.00000,  0,  321.280,  0.00000,  0.23940,  0.00000,  0.00000,  1.00000,  1,  100.0,  267.730,  80.320
5283,  '1',  80.320,  -29.720,  136.280,  -29.720,  1.00000,  0,  321.280,  0.00000,  0.10650,  0.00000,  0.00000,  1.00000,  1,  100.0,  267.730,  80.320
5298,  '1',  34.500,  57.185,  58.530,  -12.760,  1.04000,  0,  138.000,  0.00000,  0.13260,  0.00000,  0.00000,  1.00000,  1,  100.0,  115.000,  34.500
5299,  '1',  34.500,  27.645,  58.530,  -12.760,  1.04000,  0,  138.000,  0.00000,  0.32280,  0.00000,  0.00000,  1.00000,  1,  100.0,  115.000,  34.500
5300,  '1',  34.500,  33.362,  58.530,  -12.760,  1.04000,  0,  138.000,  0.00000,  0.21910,  0.00000,  0.00000,  1.00000,  1,  100.0,  115.000,  34.500
5302,  '1',  139.130,  34.563,  236.050,  -51.480,  1.04000,  0,  556.500,  0.00000,  0.13300,  0.00000,  0.00000,  1.00000,  1,  100.0,  463.750,  139.130
5303,  '1',  139.130,  46.774,  236.050,  -51.480,  1.04000,  0,  556.500,  0.00000,  0.17920,  0.00000,  0.00000,  1.00000,  1,  100.0,  463.750,  139.130
5319,  '1',  78.840,  -29.170,  133.770,  -29.170,  1.01000,  0,  315.360,  0.00000,  0.25070,  0.00000,  0.00000,  1.00000,  1,  100.0,  262.800,  78.840
5320,  '1',  78.840,  -29.170,  133.770,  -29.170,  1.01000,  0,  315.360,  0.00000,  0.28140,  0.00000,  0.00000,  1.00000,  1,  100.0,  262.800,  78.840
5321,  '1',  78.840,  -29.170,  133.770,  -29.170,  1.01000,  0,  315.360,  0.00000,  0.12810,  0.00000,  0.00000,  1.00000,  1,  100.0,  262.800,  78.840
5324,  '1',  204.530,  36.790,  144.590,  -31.530,  1.04000,  0,  340.880,  0.00000,  0.21670,  0.00000,  0.00000,  1.00000,  1,  100.0,  284.070,  85.220
5325,  '1',  204.530,  38.262,  144.590,  -31.530,  1.04000,  0,  340.880,  0.00000,  0.15030,  0.00000,  0.00000,  1.00000,  1,  100.0,  284.070,  85.220
5326,  '1',  204.530,  103.354,  144.590,  -31.530,  1.04000,  0,  340.880,  0.00000,  0.18810,  0.00000,  0.00000,  1.00000,  1,  100.0,  284.070,  85.220
5360,  '1',  262.483,  -142.799,  469.730,  -122.980,  1.01000,  0,  1209.60,  0.00000,  0.25510,  0.00000,  0.00000,  1.00000,  1,  100.0,  1008.00,  302.400
5364,  '1',  123.730,  -23.680,  108.590,  -23.680,  1.00000,  0,  256.000,  0.00000,  0.13030,  0.00000,  0.00000,  1.00000,  1,  100.0,  213.330,  64.000
5365,  '1',  123.730,  -23.680,  108.590,  -23.680,  1.00000,  0,  256.000,  0.00000,  0.11650,  0.00000,  0.00000,  1.00000,  1,  100.0,  213.330,  64.000
5366,  '1',  123.730,  -23.680,  108.590,  -23.680,  1.00000,  0,  256.000,  0.00000,  0.15490,  0.00000,  0.00000,  1.00000,  1,  100.0,  213.330,  64.000
5367,  '1',  123.730,  -23.680,  108.590,  -23.680,  1.00000,  0,  256.000,  0.00000,  0.10020,  0.00000,  0.00000,  1.00000,  1,  100.0,  213.330,  64.000
5368,  '1',  123.730,  -23.680,  108.590,  -23.680,  1.00000,  0,  256.000,  0.00000,  0.36180,  0.00000,  0.00000,  1.00000,  1,  100.0,  213.330,  64.000
5369,  '1',  123.730,  -23.680,  108.590,  -23.680,  1.00000,  0,  256.000,  0.00000,  0.24440,  0.00000,  0.00000,  1.00000,  1,  100.0,  213.330,  64.000
5382,  '1',  150.480,  65.429,  106.380,  -23.200,  1.04000,  0,  250.800,  0.00000,  0.24770,  0.00000,  0.00000,  1.00000,  1,  100.0,  209.000,  62.700
5383,  '1',  150.480,  57.643,  106.380,  -23.200,  1.04000,  0,  250.800,  0.00000,  0.39820,  0.00000,  0.00000,  1.00000,  1,  100.0,  209.000,  62.700
5399,  '1',  44.261,  -23.850,  35.270,  -23.850,  1.04000,  0,  198.720,  0.00000,  1.00000,  0.00000,  0.00000,  1.00000,  1,  100.0,  165.600,  49.680
5403,  '1',  0.000,  45.500,  45.500,  -9.920,  1.03000,  0,  107.280,  0.00000,  0.19850,  0.00000,  0.00000,  1.00000,  0,  100.0,  89.400,  26.820
5404,  '1',  0.000,  45.500,  45.500,  -9.920,  1.03000,  0,  107.280,  0.00000,  0.13470,  0.00000,  0.00000,  1.00000,  0,  100.0,  89.400,  26.820
5405,  '1',  0.000,  45.500,  45.500,  -9.920,  1.03000,  0,  107.280,  0.00000,  0.14170,  0.00000,  0.00000,  1.00000,  0,  100.0,  89.400,  26.820
5406,  '1',  0.000,  45.500,  45.500,  -9.920,  1.03000,  0,  107.280,  0.00000,  0.12270,  0.00000,  0.00000,  1.00000,  0,  100.0,  89.400,  26.820
5415,  '1',  36.600,  -13.540,  62.100,  -13.540,  1.00000,  0,  146.400,  0.00000,  0.14030,  0.00000,  0.00000,  1.00000,  1,  100.0,  122.000,  36.600
5416,  '1',  36.600,  -13.540,  62.100,  -13.540,  1.00000,  0,  146.400,  0.00000,  0.26480,  0.00000,  0.00000,  1.00000,  1,  100.0,  122.000,  36.600
5417,  '1',  36.600,  -13.540,  62.100,  -13.540,  1.00000,  0,  146.400,  0.00000,  0.16960,  0.00000,  0.00000,  1.00000,  1,  100.0,  122.000,  36.600
5418,  '1',  35.640,  -13.190,  60.470,  -13.190,  1.00000,  0,  142.560,  0.00000,  0.34000,  0.00000,  0.00000,  1.00000,  1,  100.0,  118.800,  35.640
5419,  '1',  35.640,  -13.190,  60.470,  -13.190,  1.00000,  0,  142.560,  0.00000,  0.16420,  0.00000,  0.00000,  1.00000,  1,  100.0,  118.800,  35.640
5444,  '1',  604.980,  -223.840,  1026.440,  -223.840,  1.01000,  0,  2419.92,  0.00000,  0.34260,  0.00000,  0.00000,  1.00000,  1,  100.0,  2016.60,  604.980
6006,  '1',  123.540,  7.501,  108.420,  -23.640,  1.04000,  0,  255.600,  0.00000,  0.18770,  0.00000,  0.00000,  1.00000,  1,  100.0,  213.000,  63.900
6007,  '1',  306.720,  12.856,  216.830,  -47.290,  1.04000,  0,  511.200,  0.00000,  0.13420,  0.00000,  0.00000,  1.00000,  1,  100.0,  426.000,  127.800
6008,  '1',  115.030,  7.114,  100.950,  -22.010,  1.04000,  0,  238.000,  0.00000,  0.20160,  0.00000,  0.00000,  1.00000,  1,  100.0,  198.330,  59.500
6009,  '1',  115.030,  4.537,  100.950,  -22.010,  1.04000,  0,  238.000,  0.00000,  0.18430,  0.00000,  0.00000,  1.00000,  1,  100.0,  198.330,  59.500
6010,  '1',  115.030,  5.353,  100.950,  -22.010,  1.04000,  0,  238.000,  0.00000,  0.15620,  0.00000,  0.00000,  1.00000,  1,  100.0,  198.330,  59.500
6048,  '1',  0.000,  0.000,  1.730,  -0.380,  1.04000,  0,  4.080,  0.00000,  0.11720,  0.00000,  0.00000,  1.00000,  0,  100.0,  3.400,  1.020
6049,  '1',  0.000,  4.890,  4.890,  -1.070,  1.04000,  0,  11.520,  0.00000,  0.18260,  0.00000,  0.00000,  1.00000,  0,  100.0,  9.600,  2.880
6050,  '1',  0.000,  0.000,  2.240,  -0.490,  1.04000,  0,  5.280,  0.00000,  0.36280,  0.00000,  0.00000,  1.00000,  0,  100.0,  4.400,  1.320
6052,  '1',  0.000,  29.220,  29.220,  -6.370,  1.04000,  0,  68.880,  0.00000,  0.12090,  0.00000,  0.00000,  1.00000,  0,  100.0,  57.400,  17.220
6069,  '1',  105.190,  -13.380,  92.320,  -20.130,  1.03000,  0,  217.640,  0.00000,  0.22480,  0.00000,  0.00000,  1.00000,  1,  100.0,  181.370,  54.410
6070,  '1',  105.190,  -4.999,  92.320,  -20.130,  1.03000,  0,  217.640,  0.00000,  0.24660,  0.00000,  0.00000,  1.00000,  1,  100.0,  181.370,  54.410
6071,  '1',  105.190,  -16.070,  92.320,  -20.130,  1.03000,  0,  217.640,  0.00000,  0.15280,  0.00000,  0.00000,  1.00000,  1,  100.0,  181.370,  54.410
6072,  '1',  105.190,  -5.909,  92.320,  -20.130,  1.03000,  0,  217.640,  0.00000,  0.19250,  0.00000,  0.00000,  1.00000,  1,  100.0,  181.370,  54.410
6073,  '1',  105.190,  -9.889,  92.320,  -20.130,  1.03000,  0,  217.640,  0.00000,  0.14260,  0.00000,  0.00000,  1.00000,  1,  100.0,  181.370,  54.410
6074,  '1',  105.190,  -10.646,  92.320,  -20.130,  1.03000,  0,  217.640,  0.00000,  0.11150,  0.00000,  0.00000,  1.00000,  1,  100.0,  181.370,  54.410
6078,  '1',  169.000,  -68.730,  262.510,  -68.730,  1.00000,  0,  676.000,  0.00000,  0.28900,  0.00000,  0.00000,  1.00000,  1,  100.0,  563.330,  169.000
6079,  '1',  169.000,  -68.730,  262.510,  -68.730,  1.00000,  0,  676.000,  0.00000,  0.25330,  0.00000,  0.00000,  1.00000,  1,  100.0,  563.330,  169.000
6080,  '1',  169.000,  -68.730,  262.510,  -68.730,  1.00000,  0,  676.000,  0.00000,  0.32510,  0.00000,  0.00000,  1.00000,  1,  100.0,  563.330,  169.000
6085,  '1',  0.000,  0.000,  0.000,  0.000,  1.04000,  0,  1.680,  0.00000,  1.00000,  0.00000,  0.00000,  1.00000,  0,  100.0,  1.400,  0.420
6086,  '1',  0.000,  0.000,  0.000,  0.000,  1.04000,  0,  36.000,  0.00000,  1.00000,  0.00000,  0.00000,  1.00000,  0,  100.0,  30.000,  9.000
6087,  '1',  0.000,  0.000,  0.000,  0.000,  1.04000,  0,  6.600,  0.00000,  1.00000,  0.00000,  0.00000,  1.00000,  0,  100.0,  5.500,  1.650
6088,  '1',  0.000,  0.000,  0.000,  0.000,  1.04000,  0,  12.720,  0.00000,  1.00000,  0.00000,  0.00000,  1.00000,  0,  100.0,  10.600,  3.180
6089,  '1',  0.000,  0.000,  0.000,  0.000,  1.04000,  0,  16.680,  0.00000,  1.00000,  0.00000,  0.00000,  1.00000,  0,  100.0,  13.900,  4.170
6090,  '1',  0.000,  0.000,  0.000,  0.000,  1.04000,  0,  48.840,  0.00000,  1.00000,  0.00000,  0.00000,  1.00000,  0,  100.0,  40.700,  12.210
6104,  '1',  0.000,  30.790,  30.790,  -6.720,  1.04000,  0,  72.600,  0.00000,  0.21100,  0.00000,  0.00000,  1.00000,  0,  100.0,  60.500,  18.150
6105,  '1',  0.000,  30.790,  30.790,  -6.720,  1.04000,  0,  72.600,  0.00000,  0.31280,  0.00000,  0.00000,  1.00000,  0,  100.0,  60.500,  18.150
6106,  '1',  36.300,  61.590,  61.590,  -13.430,  1.04000,  0,  145.200,  0.00000,  0.12010,  0.00000,  0.00000,  1.00000,  1,  100.0,  121.000,  36.300
6110,  '1',  177.180,  19.003,  275.220,  -72.050,  1.04000,  0,  708.720,  0.00000,  0.16800,  0.00000,  0.00000,  1.00000,  1,  100.0,  590.600,  177.180
6111,  '1',  198.450,  19.434,  308.260,  -80.700,  1.04000,  0,  793.800,  0.00000,  0.21900,  0.00000,  0.00000,  1.00000,  1,  100.0,  661.500,  198.450
6144,  '1',  0.000,  -0.930,  4.280,  -0.930,  1.03000,  0,  10.080,  0.00000,  0.21910,  0.00000,  0.00000,  1.00000,  0,  100.0,  8.400,  2.520
6145,  '1',  321.120,  -3.390,  227.010,  -49.510,  1.03000,  0,  535.200,  0.00000,  0.14770,  0.00000,  0.00000,  1.00000,  1,  100.0,  446.000,  133.800
6146,  '1',  321.120,  -3.614,  227.010,  -49.510,  1.03000,  0,  535.200,  0.00000,  0.11950,  0.00000,  0.00000,  1.00000,  1,  100.0,  446.000,  133.800
6147,  '1',  270.359,  -7.137,  474.390,  -103.450,  1.03000,  0,  1118.40,  0.00000,  0.10440,  0.00000,  0.00000,  1.00000,  1,  100.0,  932.000,  279.600
6148,  '1',  216.600,  -15.199,  367.500,  -80.140,  1.03000,  0,  866.400,  0.00000,  0.23830,  0.00000,  0.00000,  1.00000,  1,  100.0,  722.000,  216.600
6149,  '1',  216.600,  -28.047,  367.500,  -80.140,  1.03000,  0,  866.400,  0.00000,  0.12770,  0.00000,  0.00000,  1.00000,  1,  100.0,  722.000,  216.600
6164,  '1',  136.330,  -1.107,  119.640,  -26.090,  1.03000,  0,  282.060,  0.00000,  0.30070,  0.00000,  0.00000,  1.00000,  1,  100.0,  235.050,  70.520
6165,  '1',  136.330,  -1.568,  119.640,  -26.090,  1.03000,  0,  282.060,  0.00000,  0.18390,  0.00000,  0.00000,  1.00000,  1,  100.0,  235.050,  70.520
6166,  '1',  136.330,  -2.832,  119.640,  -26.090,  1.03000,  0,  282.060,  0.00000,  0.25100,  0.00000,  0.00000,  1.00000,  1,  100.0,  235.050,  70.520
6167,  '1',  136.330,  -1.461,  119.640,  -26.090,  1.03000,  0,  282.060,  0.00000,  0.13970,  0.00000,  0.00000,  1.00000,  1,  100.0,  235.050,  70.520
6242,  '1',  0.000,  15.725,  31.050,  -6.770,  1.04000,  0,  73.200,  0.00000,  0.14010,  0.00000,  0.00000,  1.00000,  0,  100.0,  61.000,  18.300
6243,  '1',  106.140,  26.039,  93.150,  -20.310,  1.04000,  0,  219.600,  0.00000,  0.28800,  0.00000,  0.00000,  1.00000,  1,  100.0,  183.000,  54.900
6244,  '1',  214.560,  31.472,  151.680,  -33.080,  1.04000,  0,  357.600,  0.00000,  0.12500,  0.00000,  0.00000,  1.00000,  1,  100.0,  298.000,  89.400
6245,  '1',  214.560,  36.533,  151.680,  -33.080,  1.04000,  0,  357.600,  0.00000,  0.24960,  0.00000,  0.00000,  1.00000,  1,  100.0,  298.000,  89.400
6246,  '1',  214.560,  69.862,  151.680,  -33.080,  1.04000,  0,  357.600,  0.00000,  0.16990,  0.00000,  0.00000,  1.00000,  1,  100.0,  298.000,  89.400
6247,  '1',  106.330,  57.510,  93.320,  -20.350,  1.04000,  0,  220.000,  0.00000,  0.11730,  0.00000,  0.00000,  1.00000,  1,  100.0,  183.330,  55.000
6248,  '1',  106.330,  28.957,  93.320,  -20.350,  1.04000,  0,  220.000,  0.00000,  0.27550,  0.00000,  0.00000,  1.00000,  1,  100.0,  183.330,  55.000
6249,  '1',  106.330,  19.523,  93.320,  -20.350,  1.04000,  0,  220.000,  0.00000,  0.17480,  0.00000,  0.00000,  1.00000,  1,  100.0,  183.330,  55.000
6257,  '1',  112.520,  -21.530,  98.750,  -21.530,  1.02000,  0,  232.800,  0.00000,  0.15520,  0.00000,  0.00000,  1.00000,  1,  100.0,  194.000,  58.200
6258,  '1',  112.520,  -21.530,  98.750,  -21.530,  1.02000,  0,  232.800,  0.00000,  0.26310,  0.00000,  0.00000,  1.00000,  1,  100.0,  194.000,  58.200
6259,  '1',  0.000,  0.000,  26.160,  -5.710,  1.02000,  0,  61.680,  0.00000,  0.14750,  0.00000,  0.00000,  1.00000,  0,  100.0,  51.400,  15.420
6260,  '1',  149.060,  -28.530,  130.810,  -28.530,  1.02000,  0,  308.400,  0.00000,  0.11970,  0.00000,  0.00000,  1.00000,  1,  100.0,  257.000,  77.100
6295,  '1',  119.610,  -22.890,  104.970,  -22.890,  1.02000,  0,  247.480,  0.00000,  0.21970,  0.00000,  0.00000,  1.00000,  1,  100.0,  206.230,  61.870
6296,  '1',  119.610,  -22.890,  104.970,  -22.890,  1.02000,  0,  247.480,  0.00000,  0.25670,  0.00000,  0.00000,  1.00000,  1,  100.0,  206.230,  61.870
6297,  '1',  119.630,  -22.890,  104.970,  -22.890,  1.02000,  0,  247.480,  0.00000,  0.14170,  0.00000,  0.00000,  1.00000,  1,  100.0,  206.230,  61.900
6301,  '1',  0.000,  0.000,  1.630,  -0.360,  1.00000,  0,  3.840,  0.00000,  0.26290,  0.00000,  0.00000,  1.00000,  0,  100.0,  3.200,  0.960
6302,  '1',  143.410,  -27.440,  125.850,  -27.440,  1.00000,  0,  296.700,  0.00000,  0.25960,  0.00000,  0.00000,  1.00000,  1,  100.0,  247.250,  74.180
6303,  '1',  143.410,  -27.440,  125.850,  -27.440,  1.00000,  0,  296.700,  0.00000,  0.27270,  0.00000,  0.00000,  1.00000,  1,  100.0,  247.250,  74.180
6304,  '1',  143.410,  -27.440,  125.850,  -27.440,  1.00000,  0,  296.700,  0.00000,  0.11710,  0.00000,  0.00000,  1.00000,  1,  100.0,  247.250,  74.180
6305,  '1',  143.410,  -27.440,  125.850,  -27.440,  1.00000,  0,  296.700,  0.00000,  0.12770,  0.00000,  0.00000,  1.00000,  1,  100.0,  247.250,  74.180
6349,  '1',  522.720,  149.509,  369.540,  -80.580,  1.04000,  0,  871.200,  0.00000,  0.16290,  0.00000,  0.00000,  1.00000,  1,  100.0,  726.000,  217.800
7005,  '1',  94.540,  16.913,  82.970,  -18.090,  1.04000,  0,  195.600,  0.00000,  0.13000,  0.00000,  0.00000,  1.00000,  1,  100.0,  163.000,  48.900
7006,  '1',  94.540,  30.463,  82.970,  -18.090,  1.04000,  0,  195.600,  0.00000,  0.19150,  0.00000,  0.00000,  1.00000,  1,  100.0,  163.000,  48.900
7007,  '1',  94.540,  19.737,  82.970,  -18.090,  1.04000,  0,  195.600,  0.00000,  0.34300,  0.00000,  0.00000,  1.00000,  1,  100.0,  163.000,  48.900
7008,  '1',  94.540,  18.396,  82.970,  -18.090,  1.04000,  0,  195.600,  0.00000,  0.21570,  0.00000,  0.00000,  1.00000,  1,  100.0,  163.000,  48.900
7009,  '1',  94.540,  16.574,  82.970,  -18.090,  1.04000,  0,  195.600,  0.00000,  0.13060,  0.00000,  0.00000,  1.00000,  1,  100.0,  163.000,  48.900
7045,  '1',  109.300,  73.814,  95.920,  -20.920,  1.03000,  0,  226.140,  0.00000,  0.12400,  0.00000,  0.00000,  1.00000,  1,  100.0,  188.450,  56.530
7046,  '1',  109.300,  95.920,  95.920,  -20.920,  1.03000,  0,  226.140,  0.00000,  0.10650,  0.00000,  0.00000,  1.00000,  1,  100.0,  188.450,  56.530
7061,  '1',  34.470,  -2.272,  58.480,  -12.750,  1.00000,  0,  137.880,  0.00000,  0.12410,  0.00000,  0.00000,  1.00000,  1,  100.0,  114.900,  34.470
7062,  '1',  34.470,  -2.503,  58.480,  -12.750,  1.00000,  0,  137.880,  0.00000,  0.19500,  0.00000,  0.00000,  1.00000,  1,  100.0,  114.900,  34.470
7063,  '1',  34.470,  -2.423,  58.480,  -12.750,  1.00000,  0,  137.880,  0.00000,  0.15790,  0.00000,  0.00000,  1.00000,  1,  100.0,  114.900,  34.470
7064,  '1',  34.470,  -2.851,  58.480,  -12.750,  1.00000,  0,  137.880,  0.00000,  0.22800,  0.00000,  0.00000,  1.00000,  1,  100.0,  114.900,  34.470
7065,  '1',  34.470,  -2.807,  58.480,  -12.750,  1.00000,  0,  137.880,  0.00000,  0.22800,  0.00000,  0.00000,  1.00000,  1,  100.0,  114.900,  34.470
7066,  '1',  34.470,  -2.562,  58.480,  -12.750,  1.00000,  0,  137.880,  0.00000,  0.34800,  0.00000,  0.00000,  1.00000,  1,  100.0,  114.900,  34.470
7079,  '1',  164.630,  13.379,  116.380,  -25.380,  1.04000,  0,  274.380,  0.00000,  0.13630,  0.00000,  0.00000,  1.00000,  1,  100.0,  228.650,  68.590
7080,  '1',  164.630,  10.494,  116.380,  -25.380,  1.04000,  0,  274.380,  0.00000,  0.17160,  0.00000,  0.00000,  1.00000,  1,  100.0,  228.650,  68.590
7081,  '1',  164.630,  10.982,  116.380,  -25.380,  1.04000,  0,  274.380,  0.00000,  0.24350,  0.00000,  0.00000,  1.00000,  1,  100.0,  228.650,  68.590
7082,  '1',  164.630,  12.763,  116.380,  -25.380,  1.04000,  0,  274.380,  0.00000,  0.26430,  0.00000,  0.00000,  1.00000,  1,  100.0,  228.650,  68.590
7098,  '1',  2381.208,  1104.681,  498.380,  -111.050,  1.00000,  0,  3600.00,  0.00000,  0.28190,  0.00000,  0.00000,  1.00000,  1,  100.0,  1354.30,  406.290
7099,  '1',  1354.300,  346.686,  498.380,  -111.050,  1.00000,  0,  1625.16,  0.00000,  0.27430,  0.00000,  0.00000,  1.00000,  1,  100.0,  1354.30,  406.290
7107,  '1',  87.000,  40.454,  76.350,  -16.650,  1.04000,  0,  180.000,  0.00000,  0.29250,  0.00000,  0.00000,  1.00000,  1,  100.0,  150.000,  45.000
7110,  '1',  141.120,  22.557,  99.760,  -21.760,  1.04000,  0,  235.200,  0.00000,  0.13730,  0.00000,  0.00000,  1.00000,  1,  100.0,  196.000,  58.800
7111,  '1',  141.120,  21.951,  99.760,  -21.760,  1.04000,  0,  235.200,  0.00000,  0.19180,  0.00000,  0.00000,  1.00000,  1,  100.0,  196.000,  58.800
7112,  '1',  141.120,  34.883,  99.760,  -21.760,  1.04000,  0,  235.200,  0.00000,  0.17280,  0.00000,  0.00000,  1.00000,  1,  100.0,  196.000,  58.800
7113,  '1',  141.120,  18.655,  99.760,  -21.760,  1.04000,  0,  235.200,  0.00000,  0.16060,  0.00000,  0.00000,  1.00000,  1,  100.0,  196.000,  58.800
7114,  '1',  141.120,  36.923,  99.760,  -21.760,  1.04000,  0,  235.200,  0.00000,  0.20370,  0.00000,  0.00000,  1.00000,  1,  100.0,  196.000,  58.800
7115,  '1',  141.120,  37.181,  99.760,  -21.760,  1.04000,  0,  235.200,  0.00000,  0.17540,  0.00000,  0.00000,  1.00000,  1,  100.0,  196.000,  58.800
7134,  '1',  148.720,  -22.930,  105.130,  -22.930,  1.00000,  0,  247.860,  0.00000,  0.12450,  0.00000,  0.00000,  1.00000,  1,  100.0,  206.550,  61.970
...
 0 /End of Generator data, Begin Branch data
1012,  1033,  '99',  0.19989,  0.97922,  0.00000,  0.00,  0.00,  0.00,  0.00000,  0.000,  0.00000,  0.00000,  0.00000,  0.00000,  1
1012,  1046,  '99',  0.11778,  0.48056,  0.00000,  0.00,  0.00,  0.00,  0.00000,  0.000,  0.00000,  0.00000,  0.00000,  0.00000,  1
1012,  -3051,  '1',  0.05710,  0.24977,  0.03804,  149.00,  0.00,  0.00,  0.00000,  0.000,  0.00000,  0.00000,  0.00000,  0.00000,  1
1033,  1046,  '99',  0.13092,  0.68232,  0.00000,  0.00,  0.00,  0.00,  0.00000,  0.000,  0.00000,  0.00000,  0.00000,  0.00000,  1
1033,  1048,  '99',  0.30555,  1.75735,  0.00000,  0.00,  0.00,  0.00,  0.00000,  0.000,  0.00000,  0.00000,  0.00000,  0.00000,  1
1033,  1049,  '99',  0.46030,  3.15948,  0.00000,  0.00,  0.00,  0.00,  0.00000,  0.000,  0.00000,  0.00000,  0.00000,  0.00000,  1
1033,  1053,  '99',  0.35045,  2.36099,  0.00000,  0.00,  0.00,  0.00,  0.00000,  0.000,  0.00000,  0.00000,  0.00000,  0.00000,  1
1033,  1081,  '99',  0.00299,  0.03089,  0.00000,  0.00,  0.00,  0.00,  0.00000,  0.000,  0.00000,  0.00000,  0.00000,  0.00000,  1
1033,  3048,  '99',  0.33088,  3.56390,  0.00000,  0.00,  0.00,  0.00,  0.00000,  0.000,  0.00000,  0.00000,  0.00000,  0.00000,  1
1033,  3050,  '1',  0.01390,  0.13600,  0.26200,  647.00,  0.00,  0.00,  0.00000,  0.000,  0.00000,  0.00000,  0.00000,  0.00000,  1
1046,  3009,  '1',  0.05654,  0.23454,  0.03980,  149.00,  0.00,  0.00,  0.00000,  0.000,  0.00000,  0.00000,  0.00000,  0.00000,  1
1048,  1049,  '99',  0.00209,  0.33499,  0.00000,  0.00,  0.00,  0.00,  0.00000,  0.000,  0.00000,  0.00000,  0.00000,  0.00000,  1
1048,  1053,  '99',  0.00224,  0.25042,  0.00000,  0.00,  0.00,  0.00,  0.00000,  0.000,  0.00000,  0.00000,  0.00000,  0.00000,  1
1048,  1072,  '99',  0.81946,  4.34681,  0.00000,  0.00,  0.00,  0.00,  0.00000,  0.000,  0.00000,  0.00000,  0.00000,  0.00000,  1
1048,  1076,  '99',  0.38889,  2.52022,  0.00000,  0.00,  0.00,  0.00,  0.00000,  0.000,  0.00000,  0.00000,  0.00000,  0.00000,  1
1048,  1081,  '99',  0.48866,  3.17163,  0.00000,  0.00,  0.00,  0.00,  0.00000,  0.000,  0.00000,  0.00000,  0.00000,  0.00000,  1
1048,  3048,  '99',  0.33891,  2.08885,  0.00000,  0.00,  0.00,  0.00,  0.00000,  0.000,  0.00000,  0.00000,  0.00000,  0.00000,  1
1049,  1053,  '99',  -0.00831,  0.44819,  0.00000,  0.00,  0.00,  0.00,  0.00000,  0.000,  0.00000,  0.00000,  0.00000,  0.00000,  1
1049,  1076,  '99',  0.57189,  4.52858,  0.00000,  0.00,  0.00,  0.00,  0.00000,  0.000,  0.00000,  0.00000,  0.00000,  0.00000,  1
1049,  3048,  '99',  0.50368,  3.75428,  0.00000,  0.00,  0.00,  0.00,  0.00000,  0.000,  0.00000,  0.00000,  0.00000,  0.00000,  1
1053,  1076,  '99',  0.43663,  3.38426,  0.00000,  0.00,  0.00,  0.00,  0.00000,  0.000,  0.00000,  0.00000,  0.00000,  0.00000,  1
1053,  1081,  '99',  0.00298,  0.02979,  0.00000,  0.00,  0.00,  0.00,  0.00000,  0.000,  0.00000,  0.00000,  0.00000,  0.00000,  1
1053,  3048,  '99',  0.38407,  2.80555,  0.00000,  0.00,  0.00,  0.00,  0.00000,  0.000,  0.00000,  0.00000,  0.00000,  0.00000,  1
1072,  1073,  '99',  0.13265,  1.22265,  0.00000,  0.00,  0.00,  0.00,  0.00000,  0.000,  0.00000,  0.00000,  0.00000,  0.00000,  1
1072,  1074,  '99',  0.06397,  1.17174,  0.00000,  0.00,  0.00,  0.00,  0.00000,  0.000,  0.00000,  0.00000,  0.00000,  0.00000,  1
1072,  1075,  '99',  0.04299,  0.93789,  0.00000,  0.00,  0.00,  0.00,  0.00000,  0.000,  0.00000,  0.00000,  0.00000,  0.00000,  1
1072,  1076,  '99',  0.01718,  0.46460,  0.00000,  0.00,  0.00,  0.00,  0.00000,  0.000,  0.00000,  0.00000,  0.00000,  0.00000,  1
1072,  1077,  '99',  0.06987,  1.13347,  0.00000,  0.00,  0.00,  0.00,  0.00000,  0.000,  0.00000,  0.00000,  0.00000,  0.00000,  1
1072,  1081,  '99',  0.02238,  0.61098,  0.00000,  0.00,  0.00,  0.00,  0.00000,  0.000,  0.00000,  0.00000,  0.00000,  0.00000,  1
1072,  3048,  '99',  0.01789,  0.45890,  0.00000,  0.00,  0.00,  0.00,  0.00000,  0.000,  0.00000,  0.00000,  0.00000,  0.00000,  1
1073,  1074,  '99',  0.16516,  1.78187,  0.00000,  0.00,  0.00,  0.00,  0.00000,  0.000,  0.00000,  0.00000,  0.00000,  0.00000,  1
1073,  1075,  '99',  0.11969,  1.42674,  0.00000,  0.00,  0.00,  0.00,  0.00000,  0.000,  0.00000,  0.00000,  0.00000,  0.00000,  1
1073,  1076,  '99',  0.05301,  0.70700,  0.00000,  0.00,  0.00,  0.00,  0.00000,  0.000,  0.00000,  0.00000,  0.00000,  0.00000,  1
1073,  1077,  '99',  0.17193,  1.72322,  0.00000,  0.00,  0.00,  0.00,  0.00000,  0.000,  0.00000,  0.00000,  0.00000,  0.00000,  1
1073,  1081,  '99',  0.06939,  0.92976,  0.00000,  0.00,  0.00,  0.00,  0.00000,  0.000,  0.00000,  0.00000,  0.00000,  0.00000,  1
1073,  3048,  '99',  0.05376,  0.69827,  0.00000,  0.00,  0.00,  0.00,  0.00000,  0.000,  0.00000,  0.00000,  0.00000,  0.00000,  1
1074,  1075,  '99',  0.04120,  1.36553,  0.00000,  0.00,  0.00,  0.00,  0.00000,  0.000,  0.00000,  0.00000,  0.00000,  0.00000,  1
1074,  1076,  '99',  0.01442,  0.67635,  0.00000,  0.00,  0.00,  0.00,  0.00000,  0.000,  0.00000,  0.00000,  0.00000,  0.00000,  1
1074,  1077,  '99',  0.07585,  1.65069,  0.00000,  0.00,  0.00,  0.00,  0.00000,  0.000,  0.00000,  0.00000,  0.00000,  0.00000,  1
1074,  1081,  '99',  0.01865,  0.88943,  0.00000,  0.00,  0.00,  0.00,  0.00000,  0.000,  0.00000,  0.00000,  0.00000,  0.00000,  1
1074,  3048,  '99',  0.01558,  0.66807,  0.00000,  0.00,  0.00,  0.00,  0.00000,  0.000,  0.00000,  0.00000,  0.00000,  0.00000,  1
1075,  1076,  '99',  0.00681,  0.54121,  0.00000,  0.00,  0.00,  0.00,  0.00000,  0.000,  0.00000,  0.00000,  0.00000,  0.00000,  1
1075,  1077,  '99',  0.04915,  1.32116,  0.00000,  0.00,  0.00,  0.00,  0.00000,  0.000,  0.00000,  0.00000,  0.00000,  0.00000,  1
1075,  1081,  '99',  0.00871,  0.71172,  0.00000,  0.00,  0.00,  0.00,  0.00000,  0.000,  0.00000,  0.00000,  0.00000,  0.00000,  1
1075,  3048,  '99',  0.00779,  0.53459,  0.00000,  0.00,  0.00,  0.00,  0.00000,  0.000,  0.00000,  0.00000,  0.00000,  0.00000,  1
1076,  1077,  '99',  0.01854,  0.65441,  0.00000,  0.00,  0.00,  0.00,  0.00000,  0.000,  0.00000,  0.00000,  0.00000,  0.00000,  1
1076,  1081,  '99',  0.00119,  0.35246,  0.00000,  0.00,  0.00,  0.00,  0.00000,  0.000,  0.00000,  0.00000,  0.00000,  0.00000,  1
1076,  3048,  '99',  0.00152,  0.26475,  0.00000,  0.00,  0.00,  0.00,  0.00000,  0.000,  0.00000,  0.00000,  0.00000,  0.00000,  1
1077,  1081,  '99',  0.02409,  0.86059,  0.00000,  0.00,  0.00,  0.00,  0.00000,  0.000,  0.00000,  0.00000,  0.00000,  0.00000,  1
1077,  3048,  '99',  0.01961,  0.64639,  0.00000,  0.00,  0.00,  0.00,  0.00000,  0.000,  0.00000,  0.00000,  0.00000,  0.00000,  1
1081,  3008,  '99',  1.09030,  4.66904,  0.00000,  0.00,  0.00,  0.00,  0.00000,  0.000,  0.00000,  0.00000,  0.00000,  0.00000,  1
1081,  3018,  '99',  0.05242,  0.52285,  0.00000,  0.00,  0.00,  0.00,  0.00000,  0.000,  0.00000,  0.00000,  0.00000,  0.00000,  1
1081,  3019,  '99',  0.50311,  3.40288,  0.00000,  0.00,  0.00,  0.00,  0.00000,  0.000,  0.00000,  0.00000,  0.00000,  0.00000,  1
1081,  3028,  '99',  0.31372,  2.95515,  0.00000,  0.00,  0.00,  0.00,  0.00000,  0.000,  0.00000,  0.00000,  0.00000,  0.00000,  1
1081,  3045,  '99',  0.03269,  0.76312,  0.00000,  0.00,  0.00,  0.00,  0.00000,  0.000,  0.00000,  0.00000,  0.00000,  0.00000,  1
1081,  3048,  '99',  0.00955,  0.15204,  0.00000,  0.00,  0.00,  0.00,  0.00000,  0.000,  0.00000,  0.00000,  0.00000,  0.00000,  1
1081,  5399,  '99',  0.07302,  1.53024,  0.00000,  0.00,  0.00,  0.00,  0.00000,  0.000,  0.00000,  0.00000,  0.00000,  0.00000,  1
2004,  2005,  '99',  -0.00120,  0.09478,  0.00000,  0.00,  0.00,  0.00,  0.00000,  0.000,  0.00000,  0.00000,  0.00000,  0.00000,  1
2004,  2006,  '99',  -0.00273,  0.14811,  0.00000,  0.00,  0.00,  0.00,  0.00000,  0.000,  0.00000,  0.00000,  0.00000,  0.00000,  1
2004,  2024,  '99',  0.00852,  0.54332,  0.00000,  0.00,  0.00,  0.00,  0.00000,  0.000,  0.00000,  0.00000,  0.00000,  0.00000,  1
2004,  2103,  '99',  0.00055,  0.14693,  0.00000,  0.00,  0.00,  0.00,  0.00000,  0.000,  0.00000,  0.00000,  0.00000,  0.00000,  1
2004,  2104,  '99',  0.00039,  0.19246,  0.00000,  0.00,  0.00,  0.00,  0.00000,  0.000,  0.00000,  0.00000,  0.00000,  0.00000,  1
2004,  2105,  '99',  0.00299,  0.30374,  0.00000,  0.00,  0.00,  0.00,  0.00000,  0.000,  0.00000,  0.00000,  0.00000,  0.00000,  1
2004,  2115,  '99',  0.04136,  1.18144,  0.00000,  0.00,  0.00,  0.00,  0.00000,  0.000,  0.00000,  0.00000,  0.00000,  0.00000,  1
2004,  2116,  '99',  0.01752,  0.61584,  0.00000,  0.00,  0.00,  0.00,  0.00000,  0.000,  0.00000,  0.00000,  0.00000,  0.00000,  1
2004,  2117,  '99',  0.03369,  1.36827,  0.00000,  0.00,  0.00,  0.00,  0.00000,  0.000,  0.00000,  0.00000,  0.00000,  0.00000,  1
2004,  2118,  '99',  0.04235,  1.51516,  0.00000,  0.00,  0.00,  0.00,  0.00000,  0.000,  0.00000,  0.00000,  0.00000,  0.00000,  1
2004,  2119,  '99',  0.02167,  0.74958,  0.00000,  0.00,  0.00,  0.00,  0.00000,  0.000,  0.00000,  0.00000,  0.00000,  0.00000,  1
2004,  2120,  '99',  0.04331,  1.45609,  0.00000,  0.00,  0.00,  0.00,  0.00000,  0.000,  0.00000,  0.00000,  0.00000,  0.00000,  1
2004,  5021,  '99',  0.22523,  1.91310,  0.00000,  0.00,  0.00,  0.00,  0.00000,  0.000,  0.00000,  0.00000,  0.00000,  0.00000,  1
2004,  5037,  '99',  0.22378,  4.30128,  0.00000,  0.00,  0.00,  0.00,  0.00000,  0.000,  0.00000,  0.00000,  0.00000,  0.00000,  1
2004,  5038,  '99',  0.22218,  4.43958,  0.00000,  0.00,  0.00,  0.00,  0.00000,  0.000,  0.00000,  0.00000,  0.00000,  0.00000,  1
2004,  5039,  '99',  0.10580,  1.95239,  0.00000,  0.00,  0.00,  0.00,  0.00000,  0.000,  0.00000,  0.00000,  0.00000,  0.00000,  1
2004,  5041,  '99',  0.23463,  4.03856,  0.00000,  0.00,  0.00,  0.00,  0.00000,  0.000,  0.00000,  0.00000,  0.00000,  0.00000,  1
2004,  5042,  '99',  0.23481,  4.75809,  0.00000,  0.00,  0.00,  0.00,  0.00000,  0.000,  0.00000,  0.00000,  0.00000,  0.00000,  1
2004,  5047,  '99',  0.22988,  2.36095,  0.00000,  0.00,  0.00,  0.00,  0.00000,  0.000,  0.00000,  0.00000,  0.00000,  0.00000,  1
2004,  5063,  '99',  0.03520,  0.32152,  0.00000,  0.00,  0.00,  0.00,  0.00000,  0.000,  0.00000,  0.00000,  0.00000,  0.00000,  1
...